Version 4
SHEET 1 1520 688
WIRE -16 -16 -272 -16
WIRE 64 -16 -16 -16
WIRE 240 -16 64 -16
WIRE 368 -16 320 -16
WIRE 432 -16 368 -16
WIRE 608 -16 512 -16
WIRE 64 0 64 -16
WIRE -272 48 -272 -16
WIRE -16 96 -16 64
WIRE 176 96 -16 96
WIRE 64 112 64 80
WIRE 64 112 32 112
WIRE 176 144 176 96
WIRE 240 144 176 144
WIRE 368 144 320 144
WIRE 544 144 368 144
WIRE 752 144 624 144
WIRE 816 144 752 144
WIRE 192 240 144 240
WIRE 320 240 256 240
WIRE 368 256 368 224
WIRE -208 272 -208 256
WIRE -208 288 -208 272
WIRE 144 320 144 240
WIRE 192 320 144 320
WIRE 320 320 320 240
WIRE 320 320 272 320
WIRE 352 320 320 320
WIRE -368 336 -496 336
WIRE 64 336 64 112
WIRE -208 352 -288 352
WIRE -144 352 -208 352
WIRE -16 352 -16 192
WIRE -16 352 -144 352
WIRE -368 368 -768 368
WIRE -144 368 -144 352
WIRE -768 384 -768 368
WIRE 352 400 352 320
WIRE 352 400 304 400
WIRE 416 400 352 400
WIRE 144 416 144 320
WIRE 144 416 112 416
WIRE 240 416 144 416
WIRE 384 432 304 432
WIRE 416 432 384 432
WIRE 384 464 384 432
FLAG -272 128 0
FLAG -144 448 0
FLAG 64 512 0
FLAG 960 432 0
FLAG 608 -16 0
FLAG 368 256 0
FLAG 368 64 0
FLAG 816 224 0
FLAG 368 -16 Vx
FLAG 368 144 Vy
FLAG 960 352 Vdd
FLAG 272 384 Vdd
FLAG 272 448 0
FLAG 416 400 Vx
FLAG 496 432 Vy
FLAG 384 544 0
FLAG 752 144 Vctrl
FLAG -368 384 0
FLAG -496 336 0
FLAG -768 464 0
FLAG -208 176 0
FLAG -208 272 Vout
SYMBOL pmos 32 192 R180
SYMATTR InstName M1
SYMATTR Value BSS84
SYMBOL voltage -272 32 R0
WINDOW 123 0 0 Left 0
WINDOW 39 0 0 Left 0
SYMATTR InstName V1
SYMATTR Value 28
SYMBOL res 48 -16 R0
SYMATTR InstName R1
SYMATTR Value 10k
SYMBOL nmos 112 336 M0
SYMATTR InstName M2
SYMATTR Value AO6408
SYMBOL res -160 352 R0
SYMATTR InstName R2
SYMATTR Value 500
SYMBOL res -32 -32 R0
SYMATTR InstName R3
SYMATTR Value 50
SYMBOL res 48 416 R0
SYMATTR InstName R4
SYMATTR Value 5k
SYMBOL res 336 -32 R90
WINDOW 0 0 56 VBottom 2
WINDOW 3 32 56 VTop 2
SYMATTR InstName R5
SYMATTR Value {100k*(1-t4)}
SYMBOL res 528 -32 R90
WINDOW 0 0 56 VBottom 2
WINDOW 3 -66 55 VTop 2
SYMATTR InstName R6
SYMATTR Value {330k*(1-t6)}
SYMBOL res 336 128 R90
WINDOW 0 0 56 VBottom 2
WINDOW 3 32 56 VTop 2
SYMATTR InstName R7
SYMATTR Value {100k*(1+t4)}
SYMBOL res 640 128 R90
WINDOW 0 0 56 VBottom 2
WINDOW 3 32 56 VTop 2
SYMATTR InstName R8
SYMATTR Value {305.1k*(1+t6)}
SYMBOL voltage 960 336 R0
WINDOW 123 0 0 Left 0
WINDOW 39 0 0 Left 0
SYMATTR InstName V2
SYMATTR Value 3.3
SYMBOL res 352 -32 R0
WINDOW 3 37 67 Left 2
SYMATTR InstName R9
SYMATTR Value {12k*(1-t5)}
SYMBOL res 352 128 R0
SYMATTR InstName R10
SYMATTR Value {12.13k*(1+t5)}
SYMBOL voltage 816 128 R0
WINDOW 123 0 0 Left 0
WINDOW 39 0 0 Left 0
SYMATTR InstName V3
SYMATTR Value PULSE(0 3.3 0 1 1 1 3)
SYMBOL OpAmps\\UniversalOpamp2 272 416 M0
SYMATTR InstName U1
SYMBOL res 288 304 R90
WINDOW 0 0 56 VBottom 2
WINDOW 3 32 56 VTop 2
SYMATTR InstName R11
SYMATTR Value {RF}
SYMBOL res 400 560 R180
WINDOW 0 36 76 Left 2
WINDOW 3 36 40 Left 2
SYMATTR InstName R12
SYMATTR Value {RF}
SYMBOL cap 256 224 R90
WINDOW 0 0 32 VBottom 2
WINDOW 3 32 32 VTop 2
SYMATTR InstName C1
SYMATTR Value 10n
SYMBOL SpecialFunctions\\ota -336 288 R0
WINDOW 3 -188 147 Left 2
SYMATTR InstName A1
SYMATTR Value G=2e-3 Vhigh=24 Iout=10m
SYMBOL voltage -768 368 R0
WINDOW 123 24 124 Left 2
WINDOW 39 0 0 Left 0
SYMATTR InstName V4
SYMATTR Value 0
SYMATTR Value2 AC 1
SYMBOL cap -224 288 R0
SYMATTR InstName C2
SYMATTR Value 10µ
SYMBOL res -224 160 R0
SYMATTR InstName R13
SYMATTR Value 100k
SYMBOL voltage 400 432 R270
WINDOW 0 32 56 VTop 2
WINDOW 3 -32 56 VBottom 2
WINDOW 123 0 0 Left 0
WINDOW 39 0 0 Left 0
SYMATTR InstName V5
SYMATTR Value 1m
TEXT -120 584 Left 2 !.tran 1000m
TEXT 536 440 Left 2 !.param RF=1Meg
TEXT 376 672 Left 2 !;ac dec 1000 0.01 100k
TEXT 880 -40 Left 2 ;.step param t2 -0.001 0.001 0.002
TEXT 880 -64 Left 2 ;.step param t1 -0.001 0.001 0.002
TEXT 880 -16 Left 2 ;.step param t3 -0.001 0.001 0.002
TEXT 880 8 Left 2 ;.step param t4 -0.001 0.001 0.001
TEXT 880 32 Left 2 ;.step param t5 -0.001 0.001 0.001
TEXT 880 56 Left 2 ;.step param t6 -0.001 0.001 0.001
TEXT 896 -136 Left 2 ;.meas TRAN err1 AVG {V(vctrl)*20mA/3.3V+Id(M1)}
TEXT 936 144 Left 2 !.params t4=0 t5=0 t6=0
