Version 4
SHEET 1 1476 680
WIRE 544 -48 336 -48
WIRE 640 -48 544 -48
WIRE 1312 -48 640 -48
WIRE 544 -32 544 -48
WIRE 1472 -32 1376 -32
WIRE 336 -16 336 -48
WIRE 1312 -16 1264 -16
WIRE 128 64 96 64
WIRE 208 64 128 64
WIRE 336 64 288 64
WIRE 784 64 336 64
WIRE 1184 80 1088 80
WIRE 1264 80 1264 -16
WIRE 1296 80 1264 80
WIRE 1472 80 1472 -32
WIRE 1472 80 1376 80
WIRE 96 144 96 64
WIRE 1088 192 1088 160
FLAG 96 224 0
FLAG 784 144 0
FLAG 544 32 0
FLAG 640 32 0
FLAG 1344 0 0
FLAG 128 64 Vbatt
FLAG 1344 -64 Vbatt
FLAG 1088 192 0
SYMBOL voltage 96 128 R0
WINDOW 3 -124 148 Left 2
WINDOW 123 0 0 Left 0
WINDOW 39 0 0 Left 0
SYMATTR InstName V1
SYMATTR Value PULSE(3.6 2.5 0 100 100 0 200)
SYMBOL res 304 48 R90
WINDOW 0 0 56 VBottom 2
WINDOW 3 32 56 VTop 2
SYMATTR InstName R1
SYMATTR Value 15
SYMBOL current 784 64 R0
WINDOW 3 -218 123 Left 2
WINDOW 123 0 0 Left 0
WINDOW 39 0 0 Left 0
SYMATTR InstName I1
SYMATTR Value PULSE(10m 10m 1m 1u 1u 100m 200m)
SYMBOL res 320 -32 R0
SYMATTR InstName R2
SYMATTR Value 220k
SYMBOL cap 528 -32 R0
SYMATTR InstName C1
SYMATTR Value 10µ
SYMBOL res 624 -64 R0
SYMATTR InstName R3
SYMATTR Value 1Meg
SYMBOL Comparators\\LT1017 1344 -32 R0
SYMATTR InstName U1
SYMBOL res 1392 64 R90
WINDOW 0 0 56 VBottom 2
WINDOW 3 32 56 VTop 2
SYMATTR InstName R4
SYMATTR Value 1Meg
SYMBOL res 1280 64 R90
WINDOW 0 0 56 VBottom 2
WINDOW 3 32 56 VTop 2
SYMATTR InstName R5
SYMATTR Value 27k
SYMBOL voltage 1088 64 R0
WINDOW 123 0 0 Left 0
WINDOW 39 0 0 Left 0
SYMATTR InstName V2
SYMATTR Value 2.5
TEXT 336 232 Left 2 !.tran 200
