Version 4
SHEET 1 1752 1712
WIRE 832 -32 656 -32
WIRE 1136 -32 832 -32
WIRE 0 16 -176 16
WIRE 288 16 0 16
WIRE 656 16 656 -32
WIRE 544 32 544 0
WIRE 832 32 832 -32
WIRE -176 64 -176 16
WIRE -288 80 -288 48
WIRE 0 80 0 16
WIRE 400 96 368 96
WIRE 544 96 480 96
WIRE 656 96 544 96
WIRE 704 96 656 96
WIRE 832 96 784 96
WIRE 928 96 832 96
WIRE 1136 96 1136 -32
WIRE 1136 96 1088 96
WIRE 1200 96 1136 96
WIRE 1328 96 1280 96
WIRE 1376 96 1328 96
WIRE 928 128 912 128
WIRE -720 144 -1184 144
WIRE -704 144 -720 144
WIRE -608 144 -624 144
WIRE -464 144 -544 144
WIRE -432 144 -464 144
WIRE -288 144 -352 144
WIRE -176 144 -288 144
WIRE -128 144 -176 144
WIRE 0 144 -48 144
WIRE 144 144 0 144
WIRE 288 160 288 16
WIRE 288 160 208 160
WIRE 320 160 288 160
WIRE 336 160 320 160
WIRE 400 160 336 160
WIRE 544 160 480 160
WIRE 656 160 544 160
WIRE 704 160 656 160
WIRE 832 160 784 160
WIRE 928 160 832 160
WIRE 1136 160 1088 160
WIRE 1200 160 1136 160
WIRE 1328 160 1280 160
WIRE 1376 160 1328 160
WIRE -1792 176 -1792 144
WIRE 144 176 128 176
WIRE 160 224 160 192
WIRE 192 240 192 192
WIRE 16 256 -64 256
WIRE 128 256 128 176
WIRE 128 256 96 256
WIRE 544 256 544 224
WIRE 656 288 656 240
WIRE 832 288 832 224
WIRE 832 288 656 288
WIRE 1136 288 1136 160
WIRE 1136 288 832 288
WIRE 608 736 560 736
WIRE 720 736 672 736
WIRE 560 832 560 736
WIRE 592 832 560 832
WIRE 720 832 720 736
WIRE 720 832 672 832
WIRE 336 864 336 160
WIRE 560 944 560 832
WIRE 592 944 560 944
WIRE 720 960 720 832
WIRE 720 960 656 960
WIRE 912 960 720 960
WIRE 336 976 336 944
WIRE 592 976 336 976
WIRE 336 992 336 976
WIRE 608 1024 608 992
WIRE 640 1040 640 992
WIRE 336 1104 336 1072
FLAG 544 0 0
FLAG 544 256 0
FLAG 160 128 Vcc2
FLAG 912 128 Vcm
FLAG -1920 -112 0
FLAG -1920 -192 Vcc
FLAG -1792 -96 0
FLAG -1792 -176 Vcm
FLAG 1328 160 Vp
FLAG 1328 96 Vn
FLAG 1376 224 0
FLAG 1376 32 0
FLAG -2048 -96 0
FLAG -2048 -176 Vee
FLAG -2176 -96 0
FLAG -2176 -176 Vcc2
FLAG -288 48 0
FLAG 192 240 Vcc2
FLAG -464 144 V1
FLAG 320 160 V2
FLAG -1792 336 0
FLAG 608 928 Vcc2
FLAG 640 1040 Vcc2
FLAG 336 1104 Vcm
FLAG 912 960 TrigL
FLAG -1184 224 0
FLAG -720 144 IN
FLAG 960 208 0
FLAG 960 48 Vcc2
FLAG 992 208 Vcc2
FLAG 368 96 0
FLAG 160 224 0
FLAG 608 1024 0
FLAG -64 256 Vcm
FLAG 480 832 Vcm
SYMBOL voltage -1920 -208 R0
WINDOW 123 0 0 Left 0
WINDOW 39 0 0 Left 0
SYMATTR InstName V1
SYMATTR Value 3.3
SYMBOL voltage -1792 -192 R0
WINDOW 123 0 0 Left 0
WINDOW 39 0 0 Left 0
SYMATTR InstName V2
SYMATTR Value 1.25
SYMBOL voltage -1792 160 R0
WINDOW 123 -101 56 Left 2
WINDOW 39 0 0 Left 0
WINDOW 3 58 64 Left 2
SYMATTR Value PULSE(0 2.4 10m 165n 153n 250u 500u)
SYMATTR InstName V3
SYMBOL cap 816 32 R0
SYMATTR InstName C1
SYMATTR Value {C5}
SYMBOL cap 528 32 R0
WINDOW 3 -40 9 Left 2
SYMATTR Value {C2}
SYMATTR InstName C2
SYMBOL res 800 80 R90
WINDOW 0 0 56 VBottom 2
WINDOW 3 -50 55 VTop 2
SYMATTR InstName R1
SYMATTR Value {R3}
SYMBOL res 672 112 R180
WINDOW 0 36 76 Left 2
WINDOW 3 33 47 Left 2
SYMATTR InstName R2
SYMATTR Value {R4}
SYMBOL res 384 112 R270
WINDOW 0 32 56 VTop 2
WINDOW 3 82 59 VBottom 2
SYMATTR InstName R3
SYMATTR Value {R1}
SYMBOL cap 816 224 M180
WINDOW 0 24 56 Left 2
WINDOW 3 24 8 Left 2
SYMATTR InstName C3
SYMATTR Value {C5}
SYMBOL cap 528 224 M180
WINDOW 0 24 56 Left 2
WINDOW 3 -45 4 Left 2
SYMATTR InstName C4
SYMATTR Value {C2}
SYMBOL res 800 176 M270
WINDOW 0 -49 55 VTop 2
WINDOW 3 0 56 VBottom 2
SYMATTR InstName R4
SYMATTR Value {R3}
SYMBOL res 672 144 M0
WINDOW 3 33 80 Left 2
SYMATTR Value {R4}
SYMATTR InstName R5
SYMBOL res 384 144 M90
WINDOW 0 81 55 VBottom 2
WINDOW 3 32 56 VTop 2
SYMATTR InstName R6
SYMATTR Value {R1}
SYMBOL cap -16 80 R0
SYMATTR InstName C5
SYMATTR Value {C5b}
SYMBOL cap -304 80 R0
WINDOW 3 -40 9 Left 2
SYMATTR Value {C2b}
SYMATTR InstName C6
SYMBOL res -32 128 R90
WINDOW 0 0 56 VBottom 2
WINDOW 3 -50 55 VTop 2
SYMATTR InstName R7
SYMATTR Value {R3b}
SYMBOL res -160 160 R180
WINDOW 0 36 76 Left 2
WINDOW 3 33 47 Left 2
SYMATTR InstName R8
SYMATTR Value {R4b}
SYMBOL res -448 160 R270
WINDOW 0 32 56 VTop 2
WINDOW 3 82 59 VBottom 2
SYMATTR InstName R9
SYMATTR Value {R1b}
SYMBOL res 1296 80 R90
WINDOW 0 0 56 VBottom 2
WINDOW 3 32 56 VTop 2
SYMATTR InstName R10
SYMATTR Value 33
SYMBOL res 1296 144 R90
WINDOW 0 0 56 VBottom 2
WINDOW 3 32 56 VTop 2
SYMATTR InstName R11
SYMATTR Value 33
SYMBOL cap 1360 96 R0
SYMATTR InstName C8
SYMATTR Value 68p
SYMBOL cap 1360 32 R0
SYMATTR InstName C9
SYMATTR Value 68p
SYMBOL cap 1360 160 R0
SYMATTR InstName C10
SYMATTR Value 68p
SYMBOL OpAmps\\ADA4807-1 176 160 R0
SYMATTR InstName U3
SYMBOL voltage -2048 -192 R0
WINDOW 123 0 0 Left 0
WINDOW 39 0 0 Left 0
SYMATTR InstName V5
SYMATTR Value -3.3
SYMBOL voltage -2176 -192 R0
WINDOW 123 0 0 Left 0
WINDOW 39 0 0 Left 0
SYMATTR InstName V4
SYMATTR Value 3.3
SYMBOL res 112 240 R90
WINDOW 0 0 56 VBottom 2
WINDOW 3 -50 55 VTop 2
SYMATTR InstName R12
SYMATTR Value {R3b+R4b}
SYMBOL cap -544 128 R90
WINDOW 0 0 32 VBottom 2
WINDOW 3 32 32 VTop 2
SYMATTR InstName C7
SYMATTR Value 22µ
SYMBOL res -608 128 R90
WINDOW 0 0 56 VBottom 2
WINDOW 3 32 56 VTop 2
SYMATTR InstName R15
SYMATTR Value {Rs}
SYMBOL voltage -1792 240 R0
WINDOW 123 -101 56 Left 2
WINDOW 39 0 0 Left 0
WINDOW 3 58 64 Left 2
SYMATTR Value PULSE(1.2 0 10m 153n 165n 10 10)
SYMATTR InstName V6
SYMBOL OpAmps\\ADA4807-1 624 960 R0
SYMATTR InstName U6
SYMBOL res 320 848 R0
SYMATTR InstName R29
SYMATTR Value 10k
SYMBOL res 320 976 R0
SYMATTR InstName R30
SYMATTR Value 10k
SYMBOL res 688 816 R90
WINDOW 0 0 56 VBottom 2
WINDOW 3 32 56 VTop 2
SYMATTR InstName R31
SYMATTR Value 10k
SYMBOL res 576 816 R90
WINDOW 0 0 56 VBottom 2
WINDOW 3 32 56 VTop 2
SYMATTR InstName R32
SYMATTR Value 10k
SYMBOL cap 672 720 R90
WINDOW 0 0 32 VBottom 2
WINDOW 3 32 32 VTop 2
SYMATTR InstName C22
SYMATTR Value 470p
SYMBOL voltage -1184 128 R0
WINDOW 123 24 124 Left 2
WINDOW 39 0 0 Left 0
SYMATTR Value2 AC 1
SYMATTR InstName V8
SYMATTR Value SINE(0 1.2 10k)
SYMBOL OpAmps\\LTC6362 992 128 R0
SYMATTR InstName U2
TEXT 232 464 Left 2 !.params R1=2439.860498 R3=4908.681976 R4=4879.720995 C2=4.700000e-10 C5=1.000000e-10
TEXT -488 416 Left 2 !.params R1b=4375.658237 R3b=3783.601933 R4b=4375.658237 C2b=1.000000e-09 C5b=6.800000e-11
TEXT -576 616 Left 2 !;ac dec 1000 0.03 10Meg
TEXT -552 712 Left 2 !.tran 100m
TEXT -560 672 Left 2 !;noise V(Vp,Vn) V3 dec 1000 1 10Meg
TEXT -1440 384 Left 2 !.param Rs=300
TEXT -1464 488 Left 2 ;.step param Rs 1 400 399
TEXT -88 1288 Left 2 !.params RR1=3.3k RR2=3.3k
