Version 4
SHEET 1 1752 1712
WIRE 1136 -32 832 -32
WIRE 288 16 -176 16
WIRE 832 16 832 -32
WIRE -176 64 -176 16
WIRE 688 96 656 96
WIRE 832 96 768 96
WIRE 928 96 832 96
WIRE 1136 96 1136 -32
WIRE 1136 96 1088 96
WIRE 1200 96 1136 96
WIRE 1328 96 1280 96
WIRE 1376 96 1328 96
WIRE 928 128 912 128
WIRE -720 144 -992 144
WIRE -704 144 -720 144
WIRE -608 144 -624 144
WIRE -464 144 -544 144
WIRE -432 144 -464 144
WIRE -176 144 -352 144
WIRE 144 144 -176 144
WIRE 288 160 288 16
WIRE 288 160 208 160
WIRE 320 160 288 160
WIRE 336 160 320 160
WIRE 688 160 336 160
WIRE 832 160 768 160
WIRE 928 160 832 160
WIRE 1136 160 1088 160
WIRE 1200 160 1136 160
WIRE 1328 160 1280 160
WIRE 1376 160 1328 160
WIRE 144 176 128 176
WIRE 160 224 160 192
WIRE 192 240 192 192
WIRE 16 256 -64 256
WIRE 128 256 128 176
WIRE 128 256 96 256
WIRE 832 288 832 240
WIRE 1136 288 1136 160
WIRE 1136 288 832 288
WIRE 608 368 560 368
WIRE 720 368 672 368
WIRE 560 464 560 368
WIRE 592 464 560 464
WIRE 720 464 720 368
WIRE 720 464 672 464
WIRE 336 496 336 160
WIRE 560 576 560 464
WIRE 592 576 560 576
WIRE 720 592 720 464
WIRE 720 592 656 592
WIRE 912 592 720 592
WIRE 336 608 336 576
WIRE 592 608 336 608
WIRE 336 624 336 608
WIRE 608 656 608 624
WIRE 640 672 640 624
WIRE 336 736 336 704
FLAG 160 128 Vcc
FLAG 912 128 Vcm
FLAG -1920 -112 0
FLAG -1920 -192 Vcc
FLAG -1792 -96 0
FLAG -1792 -176 Vcm
FLAG 1328 160 Vp
FLAG 1328 96 Vn
FLAG -2048 -96 0
FLAG -2048 -176 Vee
FLAG 192 240 Vcc
FLAG -464 144 V1
FLAG 320 160 V2
FLAG 608 560 Vcc
FLAG 640 672 Vcc
FLAG 336 736 Vcm
FLAG 912 592 TrigL
FLAG -992 224 0
FLAG -720 144 IN
FLAG 960 208 0
FLAG 960 48 Vcc
FLAG 992 208 Vcc
FLAG 160 224 0
FLAG 608 656 0
FLAG -64 256 Vcm
FLAG 480 464 Vcm
FLAG 656 96 Vcm
SYMBOL voltage -1920 -208 R0
WINDOW 123 0 0 Left 0
WINDOW 39 0 0 Left 0
SYMATTR InstName V1
SYMATTR Value 3.3
SYMBOL voltage -1792 -192 R0
WINDOW 123 0 0 Left 0
WINDOW 39 0 0 Left 0
SYMATTR InstName V2
SYMATTR Value 1.25
SYMBOL res 848 112 R180
WINDOW 0 36 76 Left 2
WINDOW 3 33 47 Left 2
SYMATTR InstName R2
SYMATTR Value 2k
SYMBOL res 672 112 R270
WINDOW 0 32 56 VTop 2
WINDOW 3 82 59 VBottom 2
SYMATTR InstName R3
SYMATTR Value 1k
SYMBOL res 848 144 M0
WINDOW 3 33 80 Left 2
SYMATTR Value 2k
SYMATTR InstName R5
SYMBOL res 672 144 M90
WINDOW 0 81 55 VBottom 2
WINDOW 3 32 56 VTop 2
SYMATTR InstName R6
SYMATTR Value 1k
SYMBOL res -160 160 R180
WINDOW 0 36 76 Left 2
WINDOW 3 33 47 Left 2
SYMATTR InstName R8
SYMATTR Value 2k
SYMBOL res -448 160 R270
WINDOW 0 32 56 VTop 2
WINDOW 3 82 59 VBottom 2
SYMATTR InstName R9
SYMATTR Value 2k
SYMBOL res 1296 80 R90
WINDOW 0 0 56 VBottom 2
WINDOW 3 32 56 VTop 2
SYMATTR InstName R10
SYMATTR Value 33
SYMBOL res 1296 144 R90
WINDOW 0 0 56 VBottom 2
WINDOW 3 32 56 VTop 2
SYMATTR InstName R11
SYMATTR Value 33
SYMBOL OpAmps\\ADA4807-1 176 160 R0
SYMATTR InstName U3
SYMBOL voltage -2048 -192 R0
WINDOW 123 0 0 Left 0
WINDOW 39 0 0 Left 0
SYMATTR InstName V5
SYMATTR Value -3.3
SYMBOL res 112 240 R90
WINDOW 0 0 56 VBottom 2
WINDOW 3 -50 55 VTop 2
SYMATTR InstName R12
SYMATTR Value 2k
SYMBOL cap -544 128 R90
WINDOW 0 0 32 VBottom 2
WINDOW 3 32 32 VTop 2
SYMATTR InstName C7
SYMATTR Value 22µ
SYMBOL res -608 128 R90
WINDOW 0 0 56 VBottom 2
WINDOW 3 32 56 VTop 2
SYMATTR InstName R15
SYMATTR Value {Rs}
SYMBOL OpAmps\\ADA4807-1 624 592 R0
SYMATTR InstName U6
SYMBOL res 320 480 R0
SYMATTR InstName R29
SYMATTR Value 10k
SYMBOL res 320 608 R0
SYMATTR InstName R30
SYMATTR Value 10k
SYMBOL res 688 448 R90
WINDOW 0 0 56 VBottom 2
WINDOW 3 32 56 VTop 2
SYMATTR InstName R31
SYMATTR Value 10k
SYMBOL res 576 448 R90
WINDOW 0 0 56 VBottom 2
WINDOW 3 32 56 VTop 2
SYMATTR InstName R32
SYMATTR Value 10k
SYMBOL cap 672 352 R90
WINDOW 0 0 32 VBottom 2
WINDOW 3 32 32 VTop 2
SYMATTR InstName C22
SYMATTR Value 470p
SYMBOL voltage -992 128 R0
WINDOW 123 24 124 Left 2
WINDOW 39 0 0 Left 0
SYMATTR Value2 AC 1
SYMATTR InstName V8
SYMATTR Value SINE(0 1.2 10k)
SYMBOL OpAmps\\LTC6362 992 128 R0
SYMATTR InstName U2
TEXT -552 712 Left 2 !.tran 100m
TEXT -560 672 Left 2 !;noise V(Vp,Vn) V3 dec 1000 1 10Meg
TEXT -1440 384 Left 2 !.param Rs=300
