Version 4
SHEET 1 1752 1712
WIRE 432 -80 240 -80
WIRE 672 -80 432 -80
WIRE -272 -32 -336 -32
WIRE -144 -32 -192 -32
WIRE 240 -32 240 -80
WIRE 432 -16 432 -80
WIRE 96 48 64 48
WIRE 240 48 176 48
WIRE 288 48 240 48
WIRE 432 48 368 48
WIRE 464 48 432 48
WIRE 672 48 672 -80
WIRE 672 48 624 48
WIRE 736 48 672 48
WIRE 864 48 816 48
WIRE 912 48 864 48
WIRE 464 80 432 80
WIRE -336 96 -336 -32
WIRE -272 96 -336 96
WIRE -144 112 -144 -32
WIRE -144 112 -208 112
WIRE -112 112 -144 112
WIRE -96 112 -112 112
WIRE 96 112 -96 112
WIRE 240 112 176 112
WIRE 288 112 240 112
WIRE 432 112 368 112
WIRE 464 112 432 112
WIRE 672 112 624 112
WIRE 736 112 672 112
WIRE 864 112 816 112
WIRE 912 112 864 112
WIRE -800 128 -1072 128
WIRE -784 128 -800 128
WIRE -688 128 -704 128
WIRE -528 128 -624 128
WIRE -352 128 -528 128
WIRE -272 128 -352 128
WIRE -352 144 -352 128
WIRE -352 240 -352 224
WIRE 240 240 240 192
WIRE 432 240 432 176
WIRE 432 240 240 240
WIRE 672 240 672 112
WIRE 672 240 432 240
WIRE 160 352 96 352
WIRE 288 352 224 352
WIRE 96 448 96 352
WIRE 160 448 96 448
WIRE 288 448 288 352
WIRE 288 448 240 448
WIRE -112 528 -112 112
WIRE 96 576 96 448
WIRE 160 576 96 576
WIRE 288 592 288 448
WIRE 288 592 224 592
WIRE 336 592 288 592
WIRE 160 608 -112 608
WIRE -112 624 -112 608
WIRE -112 720 -112 704
FLAG 432 80 Vcm
FLAG -1920 -112 0
FLAG -1920 -192 Vcc
FLAG -1792 -96 0
FLAG -1792 -176 Vcm
FLAG 864 112 Vp
FLAG 864 48 Vn
FLAG -2048 -96 0
FLAG -2048 -176 Vee
FLAG -1072 208 0
FLAG -800 128 IN
FLAG 496 160 0
FLAG 496 0 Vcc
FLAG 528 160 Vcc
FLAG 64 48 Vcm
FLAG -240 80 Vcc
FLAG -528 128 V1
FLAG -96 112 V2
FLAG -352 240 Vcm
FLAG -240 144 0
FLAG 192 560 Vcc
FLAG 192 624 0
FLAG 16 448 0
FLAG 336 592 Vtrig
FLAG -112 720 0
SYMBOL voltage -1920 -208 R0
WINDOW 123 0 0 Left 0
WINDOW 39 0 0 Left 0
SYMATTR InstName V1
SYMATTR Value 3.3
SYMBOL voltage -1792 -192 R0
WINDOW 123 0 0 Left 0
WINDOW 39 0 0 Left 0
SYMATTR InstName V2
SYMATTR Value 1.25
SYMBOL res 256 64 R180
WINDOW 0 36 76 Left 2
WINDOW 3 33 47 Left 2
SYMATTR InstName R2
SYMATTR Value 2k
SYMBOL res 80 64 R270
WINDOW 0 32 56 VTop 2
WINDOW 3 82 59 VBottom 2
SYMATTR InstName R3
SYMATTR Value 1k
SYMBOL res 256 96 M0
WINDOW 3 33 80 Left 2
SYMATTR Value 2k
SYMATTR InstName R5
SYMBOL res 80 96 M90
WINDOW 0 81 55 VBottom 2
WINDOW 3 32 56 VTop 2
SYMATTR InstName R6
SYMATTR Value 1k
SYMBOL res 832 32 R90
WINDOW 0 0 56 VBottom 2
WINDOW 3 32 56 VTop 2
SYMATTR InstName R10
SYMATTR Value 33
SYMBOL res 832 96 R90
WINDOW 0 0 56 VBottom 2
WINDOW 3 32 56 VTop 2
SYMATTR InstName R11
SYMATTR Value 33
SYMBOL voltage -2048 -192 R0
WINDOW 123 0 0 Left 0
WINDOW 39 0 0 Left 0
SYMATTR InstName V5
SYMATTR Value -3.3
SYMBOL cap -624 112 R90
WINDOW 0 0 32 VBottom 2
WINDOW 3 32 32 VTop 2
SYMATTR InstName C7
SYMATTR Value 22µ
SYMBOL res -688 112 R90
WINDOW 0 0 56 VBottom 2
WINDOW 3 32 56 VTop 2
SYMATTR InstName R15
SYMATTR Value {Rs}
SYMBOL voltage -1072 112 R0
WINDOW 123 24 124 Left 2
WINDOW 39 0 0 Left 0
SYMATTR Value2 AC 1
SYMATTR InstName V8
SYMATTR Value SINE(0 1.2 100k)
SYMBOL OpAmps\\LTC6362 528 80 R0
SYMATTR InstName U2
SYMBOL res -336 240 R180
WINDOW 0 36 76 Left 2
WINDOW 3 36 40 Left 2
SYMATTR InstName R7
SYMATTR Value 100k
SYMBOL res -176 -48 R90
WINDOW 0 0 56 VBottom 2
WINDOW 3 32 56 VTop 2
SYMATTR InstName R1
SYMATTR Value 1k
SYMBOL cap 416 -16 R0
SYMATTR InstName C1
SYMATTR Value 22p
SYMBOL cap 416 112 R0
SYMATTR InstName C2
SYMATTR Value 22p
SYMBOL res 384 32 R90
WINDOW 0 0 56 VBottom 2
WINDOW 3 32 56 VTop 2
SYMATTR InstName R4
SYMATTR Value 1
SYMBOL res 384 96 R90
WINDOW 0 0 56 VBottom 2
WINDOW 3 32 56 VTop 2
SYMATTR InstName R8
SYMATTR Value 1
SYMBOL OpAmps\\ADA4500 -240 48 R0
SYMATTR InstName U1
SYMBOL res -96 720 R180
WINDOW 0 36 76 Left 2
WINDOW 3 36 40 Left 2
SYMATTR InstName R9
SYMATTR Value 10k
SYMBOL res 256 432 R90
WINDOW 0 0 56 VBottom 2
WINDOW 3 32 56 VTop 2
SYMATTR InstName R12
SYMATTR Value 10k
SYMBOL OpAmps\\ADA4500 192 528 R0
SYMATTR InstName U3
SYMBOL cap 224 336 R90
WINDOW 0 0 32 VBottom 2
WINDOW 3 32 32 VTop 2
SYMATTR InstName C3
SYMATTR Value 470pF
SYMBOL res 112 432 R90
WINDOW 0 0 56 VBottom 2
WINDOW 3 32 56 VTop 2
SYMATTR InstName R13
SYMATTR Value 10k
SYMBOL res -96 624 R180
WINDOW 0 36 76 Left 2
WINDOW 3 36 40 Left 2
SYMATTR InstName R14
SYMATTR Value 10k
TEXT -1144 688 Left 2 !.tran 100m
TEXT -1152 648 Left 2 !;noise V(Vp,Vn) V8 dec 1000 0.3 1Meg
TEXT -1440 384 Left 2 !.param Rs=300
TEXT -1104 496 Left 2 !;ac dec 1000 10m 10Meg
